# Draft CIF file generated with Atomsk

data_I

_audit_creation_date      'Apr. 14, 2025'
_audit_creation_method    'Draft CIF file generated with Atomsk'
 
_chemical_name_common             ?
_chemical_melting_point           ?
_chemical_formula_iupac           'Ti O'
_chemical_formula_moiety          'Ti O'
_chemical_formula_sum             'Ti O'
_chemical_formula_weight          63.866
_chemical_compound_source         ?
_chemical_absolute_configuration  ?
_exptl_crystal_description        'EDIT-ENTRY'
_diffrn_measurement_device_type   'EDIT-ENTRY'
 
_space_group_IT_number            1
_space_group_crystal_system       cubic
_symmetry_space_group_name_Hall   'P 1'
_symmetry_space_group_name_H-M    'P 1'
 
loop_
_space_group_symop_operation_xyz
'+x,+y,+z'
 
_cell_length_a                    3.0330
_cell_length_b                    3.0330
_cell_length_c                    3.0330
_cell_angle_alpha                 90.0000
_cell_angle_beta                  90.0000
_cell_angle_gamma                 90.0000
_cell_volume                      27.9020
 
loop_
 _atom_site_label
 _atom_site_type_symbol
 _atom_site_fract_x
 _atom_site_fract_y
 _atom_site_fract_z
Ti1  Ti  0.000000  0.000000  0.000000
O1  O  0.500000  0.500000  0.500000

# end of cif file
